 &time_control
 run_days                            = 0,
 run_hours                           = 24,
 run_minutes                         = 0,
 run_seconds                         = 0,
 start_year                          = 2005, 2005, 2000,
 start_month                         = 09,   09,   01,
 start_day                           = 01,   01,   24,
 start_hour                          = 00,   00,   12,
 start_minute                        = 00,   00,   00,
 start_second                        = 00,   00,   00,
 end_year                            = 2005, 2005, 2000,
 end_month                           = 09,   09,   01,
 end_day                             = 02,   11,   25,
 end_hour                            = 00,   0,   12,
 end_minute                          = 00,   00,   00,
 end_second                          = 00,   00,   00,
 interval_seconds                    = 86400
 input_from_file                     = .true.,.false.,.false.,
 history_interval                    = 120,  60,   60,
 frames_per_outfile                  = 1000, 1, 1000,
 restart                             = .false.,
 restart_interval                    = 1440,
 io_form_history                     = 2
 io_form_restart                     = 2
 io_form_input                       = 2
 io_form_boundary                    = 2
 debug_level                         = 0
 /

 &domains
 time_step                           = 60,
 time_step_fract_num                 = 0,
 time_step_fract_den                 = 1,
 max_dom                             = 1,
 s_we                                = 1,     1,     1,
 e_we                                = 200,    202,   94,
 s_sn                                = 1,     1,     1,
 e_sn                                = 200,    202,    91,
 s_vert                              = 1,     1,     1,
 e_vert                              = 31,    31,    28,
 num_metgrid_levels                  = 27
 dx                                  = 12000, 4000,  3333,
 dy                                  = 12000, 4000,  3333,
 grid_id                             = 1,     2,     3,
 parent_id                           = 0,     1,     2,
 i_parent_start                      = 0,     128,    30,
 j_parent_start                      = 0,     5,    30,
 parent_grid_ratio                   = 1,     3,     3,
 parent_time_step_ratio              = 1,     3,     3,
 feedback                            = 1,
 smooth_option                       = 0
 /

 &physics
 mp_physics                          = 2,     2,     2,
 ra_lw_physics                       = 1,     1,     1,
 ra_sw_physics                       = 1,     1,     1,
 radt                                = 30,    30,    30,
 sf_sfclay_physics                   = 2,     2,     1,
 sf_surface_physics                  = 2,     2,     1,
 bl_pbl_physics                      = 2,     2,     1,
 bldt                                = 0,     0,     0,
 cu_physics                          = 1,     0,     0,
 cudt                                = 5,     5,     5,
 isfflx                              = 1,
 ifsnow                              = 0,
 icloud                              = 1,
 surface_input_source                = 0,
 num_soil_layers                     = 4,
 ucmcall                             = 0,
 mp_zero_out                         = 0,
 maxiens                             = 1,
 maxens                              = 3,
 maxens2                             = 3,
 maxens3                             = 16,
 ensdim                              = 144,
 /

 &fdda
 /

 &dynamics
 w_damping                           = 0,
 diff_opt                            = 1,
 km_opt                              = 4,
 diff_6th_opt                        = 0,
 diff_6th_factor                     = 0.12,
 base_temp                           = 290.
 damp_opt                            = 0,
 zdamp                               = 5000.,  5000.,  5000.,
 dampcoef                            = 0.01,   0.01,   0.01
 khdif                               = 0,      0,      0,
 kvdif                               = 0,      0,      0,
 non_hydrostatic                     = .true., .true., .true.,
 pd_moist                            = .false., .false., .false.,
 pd_scalar                           = .false., .false., .false.,
 /

 &bdy_control
 spec_bdy_width                      = 5,
 spec_zone                           = 1,
 relax_zone                          = 4,
 specified                           = .true., .false.,.false.,
 nested                              = .false., .true., .true.,
 /

 &grib2
 /

 &namelist_quilt
 nio_tasks_per_group = 16,
 nio_groups = 1,
 /
